
http://water.usgs.gov/ogw/modflow/MODFLOW.html
